data_image0
_cell_length_a       11.0908
_cell_length_b       11.0908
_cell_length_c       11.0908
_cell_angle_alpha    109.471
_cell_angle_beta     109.471
_cell_angle_gamma    109.471

_symmetry_space_group_name_H-M    P 1
_symmetry_int_tables_number       1

loop_
  _symmetry_equiv_pos_as_xyz
  'x, y, z'

loop_
  _atom_site_label
  _atom_site_occupancy
  _atom_site_fract_x
  _atom_site_fract_y
  _atom_site_fract_z
  _atom_site_thermal_displace_type
  _atom_site_B_iso_or_equiv
  _atom_site_type_symbol
  Li1      1.0000 0.87500  0.25000  0.12500  Biso   1.000  Li
  Li2      1.0000 0.62500  0.75000  0.37500  Biso   1.000  Li
  Li3      1.0000 0.12500  0.87500  0.25000  Biso   1.000  Li
  Li4      1.0000 0.37500  0.62500  0.75000  Biso   1.000  Li
  Li5      1.0000 0.25000  0.12500  0.87500  Biso   1.000  Li
  Li6      1.0000 0.75000  0.37500  0.62500  Biso   1.000  Li
  Li7      1.0000 0.75000  0.87500  0.12500  Biso   1.000  Li
  Li8      1.0000 0.25000  0.62500  0.37500  Biso   1.000  Li
  Li9      1.0000 0.62500  0.37500  0.25000  Biso   1.000  Li
  Li10     1.0000 0.87500  0.12500  0.75000  Biso   1.000  Li
  Li11     1.0000 0.12500  0.75000  0.87500  Biso   1.000  Li
  Li12     1.0000 0.37500  0.25000  0.62500  Biso   1.000  Li
  Li13     1.0000 0.25000  0.69240  0.80760  Biso   1.000  Li
  Li14     1.0000 0.38480  0.44240  0.69240  Biso   1.000  Li
  Li15     1.0000 0.25000  0.05760  0.44240  Biso   1.000  Li
  Li16     1.0000 0.11520  0.80760  0.05760  Biso   1.000  Li
  Li17     1.0000 0.80760  0.25000  0.69240  Biso   1.000  Li
  Li18     1.0000 0.05760  0.11520  0.80760  Biso   1.000  Li
  Li19     1.0000 0.69240  0.38480  0.44240  Biso   1.000  Li
  Li20     1.0000 0.44240  0.25000  0.05760  Biso   1.000  Li
  Li21     1.0000 0.69240  0.80760  0.25000  Biso   1.000  Li
  Li22     1.0000 0.05760  0.44240  0.25000  Biso   1.000  Li
  Li23     1.0000 0.80760  0.05760  0.11520  Biso   1.000  Li
  Li24     1.0000 0.44240  0.69240  0.38480  Biso   1.000  Li
  Li25     1.0000 0.75000  0.30760  0.19240  Biso   1.000  Li
  Li26     1.0000 0.61520  0.55760  0.30760  Biso   1.000  Li
  Li27     1.0000 0.75000  0.94240  0.55760  Biso   1.000  Li
  Li28     1.0000 0.88480  0.19240  0.94240  Biso   1.000  Li
  Li29     1.0000 0.19240  0.75000  0.30760  Biso   1.000  Li
  Li30     1.0000 0.94240  0.88480  0.19240  Biso   1.000  Li
  Li31     1.0000 0.30760  0.61520  0.55760  Biso   1.000  Li
  Li32     1.0000 0.55760  0.75000  0.94240  Biso   1.000  Li
  Li33     1.0000 0.30760  0.19240  0.75000  Biso   1.000  Li
  Li34     1.0000 0.94240  0.55760  0.75000  Biso   1.000  Li
  Li35     1.0000 0.19240  0.94240  0.88480  Biso   1.000  Li
  Li36     1.0000 0.55760  0.30760  0.61520  Biso   1.000  Li
  O1       1.0000 0.30458  0.47859  0.38529  Biso   1.000  O
  O2       1.0000 0.59330  0.91929  0.11471  Biso   1.000  O
  O3       1.0000 0.19542  0.58071  0.17401  Biso   1.000  O
  O4       1.0000 0.90670  0.02141  0.32599  Biso   1.000  O
  O5       1.0000 0.38529  0.30458  0.47859  Biso   1.000  O
  O6       1.0000 0.32599  0.90670  0.02141  Biso   1.000  O
  O7       1.0000 0.11471  0.59330  0.91929  Biso   1.000  O
  O8       1.0000 0.17401  0.19542  0.58071  Biso   1.000  O
  O9       1.0000 0.47859  0.38529  0.30458  Biso   1.000  O
  O10      1.0000 0.58071  0.17401  0.19542  Biso   1.000  O
  O11      1.0000 0.02141  0.32599  0.90670  Biso   1.000  O
  O12      1.0000 0.91929  0.11471  0.59330  Biso   1.000  O
  O13      1.0000 0.58071  0.90670  0.38529  Biso   1.000  O
  O14      1.0000 0.02141  0.19542  0.11471  Biso   1.000  O
  O15      1.0000 0.91929  0.30458  0.32599  Biso   1.000  O
  O16      1.0000 0.47859  0.59330  0.17401  Biso   1.000  O
  O17      1.0000 0.59330  0.17401  0.47859  Biso   1.000  O
  O18      1.0000 0.19542  0.11471  0.02141  Biso   1.000  O
  O19      1.0000 0.90670  0.38529  0.58071  Biso   1.000  O
  O20      1.0000 0.30458  0.32599  0.91929  Biso   1.000  O
  O21      1.0000 0.32599  0.91929  0.30458  Biso   1.000  O
  O22      1.0000 0.11471  0.02141  0.19542  Biso   1.000  O
  O23      1.0000 0.17401  0.47859  0.59330  Biso   1.000  O
  O24      1.0000 0.38529  0.58071  0.90670  Biso   1.000  O
  O25      1.0000 0.69542  0.52141  0.61471  Biso   1.000  O
  O26      1.0000 0.40670  0.08071  0.88529  Biso   1.000  O
  O27      1.0000 0.80458  0.41929  0.82599  Biso   1.000  O
  O28      1.0000 0.09330  0.97859  0.67401  Biso   1.000  O
  O29      1.0000 0.61471  0.69542  0.52141  Biso   1.000  O
  O30      1.0000 0.67401  0.09330  0.97859  Biso   1.000  O
  O31      1.0000 0.88529  0.40670  0.08071  Biso   1.000  O
  O32      1.0000 0.82599  0.80458  0.41929  Biso   1.000  O
  O33      1.0000 0.52141  0.61471  0.69542  Biso   1.000  O
  O34      1.0000 0.41929  0.82599  0.80458  Biso   1.000  O
  O35      1.0000 0.97859  0.67401  0.09330  Biso   1.000  O
  O36      1.0000 0.08071  0.88529  0.40670  Biso   1.000  O
  O37      1.0000 0.41929  0.09330  0.61471  Biso   1.000  O
  O38      1.0000 0.97859  0.80458  0.88529  Biso   1.000  O
  O39      1.0000 0.08071  0.69542  0.67401  Biso   1.000  O
  O40      1.0000 0.52141  0.40670  0.82599  Biso   1.000  O
  O41      1.0000 0.40670  0.82599  0.52141  Biso   1.000  O
  O42      1.0000 0.80458  0.88529  0.97859  Biso   1.000  O
  O43      1.0000 0.09330  0.61471  0.41929  Biso   1.000  O
  O44      1.0000 0.69542  0.67401  0.08071  Biso   1.000  O
  O45      1.0000 0.67401  0.08071  0.69542  Biso   1.000  O
  O46      1.0000 0.88529  0.97859  0.80458  Biso   1.000  O
  O47      1.0000 0.82599  0.52141  0.40670  Biso   1.000  O
  O48      1.0000 0.61471  0.41929  0.09330  Biso   1.000  O
  La1      1.0000 0.25000  0.37500  0.12500  Biso   1.000  La
  La2      1.0000 0.75000  0.12500  0.37500  Biso   1.000  La
  La3      1.0000 0.12500  0.25000  0.37500  Biso   1.000  La
  La4      1.0000 0.37500  0.75000  0.12500  Biso   1.000  La
  La5      1.0000 0.37500  0.12500  0.25000  Biso   1.000  La
  La6      1.0000 0.12500  0.37500  0.75000  Biso   1.000  La
  La7      1.0000 0.75000  0.62500  0.87500  Biso   1.000  La
  La8      1.0000 0.25000  0.87500  0.62500  Biso   1.000  La
  La9      1.0000 0.87500  0.75000  0.62500  Biso   1.000  La
  La10     1.0000 0.62500  0.25000  0.87500  Biso   1.000  La
  La11     1.0000 0.62500  0.87500  0.75000  Biso   1.000  La
  La12     1.0000 0.87500  0.62500  0.25000  Biso   1.000  La
  Zr1      1.0000 -0.00000  0.00000  0.00000  Biso   1.000  Zr
  Zr2      1.0000 0.50000  0.00000  0.50000  Biso   1.000  Zr
  Zr3      1.0000 0.50000  0.50000  0.00000  Biso   1.000  Zr
  Zr4      1.0000 -0.00000  0.50000  0.50000  Biso   1.000  Zr
  Zr5      1.0000 0.50000  0.00000  0.00000  Biso   1.000  Zr
  Zr6      1.0000 0.50000  0.50000  0.50000  Biso   1.000  Zr
  Zr7      1.0000 -0.00000  0.00000  0.50000  Biso   1.000  Zr
  Zr8      1.0000 -0.00000  0.50000  0.00000  Biso   1.000  Zr
